29
	Energy:      36.9283794
C         -1.56465       -2.14435        0.38828
C         -0.70292       -0.99089       -0.15376
C          0.78114       -1.23480        0.00617
H         -1.00079       -0.07787        0.40592
H         -0.90255       -0.81005       -1.23188
C          1.27048       -2.45613        0.30560
C          0.40109       -3.68521        0.44228
C         -1.05156       -3.50986       -0.11549
H          0.39109       -3.93743        1.52488
H          0.88992       -4.51788       -0.10498
H         -2.60989       -1.93448        0.08734
H         -1.51740       -2.14450        1.50070
C          1.71266       -0.06831       -0.18488
H          2.77760       -0.35521       -0.04978
H          1.46927        0.72540        0.55206
H          1.58855        0.33946       -1.20987
C         -1.95580       -4.69370        0.38932
C         -3.41799       -4.57285       -0.08634
H         -4.01529       -5.42873        0.29506
H         -3.47583       -4.57185       -1.19572
H         -3.90578       -3.65935        0.30430
C         -1.42342       -6.07049       -0.05812
H         -1.96711       -4.68641        1.50226
H         -0.41314       -6.27062        0.35041
H         -1.38831       -6.14080       -1.16628
H         -2.08212       -6.87912        0.32522
O         -1.06716       -3.51798       -1.52977
H         -0.23560       -3.10349       -1.87688
H          2.33766       -2.58601        0.46244
